# coding=utf-8
# --------------------------------------------------------------------
# Copyright (C) 1991 - 2020 - EDF R&D - www.code-aster.org
# This file is part of code_aster.
#
# code_aster is free software: you can redistribute it and/or modify
# it under the terms of the GNU General Public License as published by
# the Free Software Foundation, either version 3 of the License, or
# (at your option) any later version.
#
# code_aster is distributed in the hope that it will be useful,
# but WITHOUT ANY WARRANTY; without even the implied warranty of
# MERCHANTABILITY or FITNESS FOR A PARTICULAR PURPOSE.  See the
# GNU General Public License for more details.
#
# You should have received a copy of the GNU General Public License
# along with code_aster.  If not, see <http://www.gnu.org/licenses/>.
# --------------------------------------------------------------------
# person_in_charge: sylvie.michel-ponnelle@edf.fr

POURSUITE()

# ----------------------------------------------------
# ETAPE 3
#
# CALCUL D'UNE NOUVELLE SOLUTION COMPLETE
# ----------------------------------------------------
#
CLIM=AFFE_CHAR_MECA(MODELE=MODELE,
                    FACE_IMPO=(_F(GROUP_MA=('SG','SD',),
                                  DNOR=0.0,),
                               _F(GROUP_MA='SB',
                                  DZ=0.0,),),
                    LIAISON_UNIF=_F(GROUP_MA='SH',
                                    DDL='DZ',),
                    PESANTEUR=_F(GRAVITE=9.81,
                                 DIRECTION=(0.0,0.0,-1.0,),),);
#poids du dome et du fut
CH_DOME=AFFE_CHAR_MECA(MODELE=MODELE,
                        PRES_REP=(_F(GROUP_MA='SH',
                                     PRES=p_poids),),);

# Definition et affectation du materiau
BETON=DEFI_MATERIAU(ELAS_FO=_F(E=E,
                               NU=NU,
                               RHO=RHO,
                               TEMP_DEF_ALPHA=20.0,
                               ALPHA=ALPHA,
                               B_ENDOGE=p_endo ,
                               FONC_DESORP=FCTD,
                               K_DESSIC=${p_kdes},),
                    BPEL_BETON=_F(),
                    BETON_BURGER=_F(YoungModulus=p_E_b365,
                                    PoissonRatio=p_nu,
                                    K_RS=p_krs,
                                    ETA_RS=p_etars,
                                    KAPPA=p_kappa,
                                    ETA_IS=p_etais,
                                    K_RD=p_krd,
                                    ETA_RD=p_etard,
                                    ETA_ID=p_etaid,
                                    ETA_FD=${p_etafd},
                                    TEMP_0_C=p_temp0c,
                                    QSR_K=p_qsrk),);
CHMAT=AFFE_MATERIAU(MAILLAGE=MAILMEC,
                    AFFE=(_F(GROUP_MA=('PACE','SI','SD','SG','SH','SB',),
                             MATER=BETON,),
                          _F(GROUP_MA=('CABLEH1','CABLEH2','CABLEH3','CABLEV1','CABLEV2'),
                             MATER=ACIERC),),
                    AFFE_VARC=(_F(TOUT='OUI',
                                  EVOL=HYDRC,
                                  NOM_VARC='HYDR',
                                  NOM_CHAM='HYDR_NOEU'),
                               _F(TOUT='OUI',
                                  EVOL=SCALC,
                                  NOM_VARC='SECH',
                                  VALE_REF=C_100,),
                              _F(TOUT='OUI',
                                 EVOL=TCALC,
                                 NOM_VARC='TEMP',
                                 VALE_REF=T_arret,),),);
# DEPENDING DEFI_CABLE_BP
# -----------------------
CABH100=DEFI_CABLE_BP(MODELE=MODELE,
                      CHAM_MATER=CHMAT,
                      CARA_ELEM=CARAMECA,
                      GROUP_MA_BETON='PACE',
                      DEFI_CABLE=(_F(GROUP_MA='CABLEH1',
                                     GROUP_NO_ANCRAGE=('CABH1G','CABH1D',),),
                                  _F(GROUP_MA='CABLEH2',
                                     GROUP_NO_ANCRAGE=('CABH2G','CABH2D',),),
                                  _F(GROUP_MA='CABLEH3',
                                     GROUP_NO_ANCRAGE=('CABH3G','CABH3D',),),),
                      TYPE_ANCRAGE=('ACTIF','ACTIF',),
                      TENSION_INIT= p_tensH*p_secc,
                      RECUL_ANCRAGE=0.0,
                      TYPE_RELAX='SANS',);

CABV100=DEFI_CABLE_BP(MODELE=MODELE,
                      CHAM_MATER=CHMAT,
                      CARA_ELEM=CARAMECA,
                      GROUP_MA_BETON='PACE',
                      DEFI_CABLE=(_F(GROUP_MA='CABLEV1',
                                     GROUP_NO_ANCRAGE=('CABV1B','CABV1H',),),
                                  _F(GROUP_MA='CABLEV2',
                                    GROUP_NO_ANCRAGE=('CABV2B','CABV2H',),),),
                      TYPE_ANCRAGE=('ACTIF','ACTIF',),
                      TENSION_INIT=p_tensV*p_secc,
                      RECUL_ANCRAGE=0.0,
                      TYPE_RELAX='SANS',);
CH_CABH=AFFE_CHAR_MECA(MODELE=MODELE,
                       RELA_CINE_BP=_F(CABLE_BP=CABH100,
                                       SIGM_BPEL='NON',
                                       RELA_CINE='OUI',),);

CH_CABV=AFFE_CHAR_MECA(MODELE=MODELE,
                       RELA_CINE_BP=_F(CABLE_BP=CABV100,
                                       SIGM_BPEL='NON',
                                       RELA_CINE='OUI',),);

#  RESOLUTION DU PROBLEME
#------------------------
RES1=STAT_NON_LINE(MODELE=MODELE,
                   CHAM_MATER=CHMAT,
                   CARA_ELEM=CARAMECA,
                   EXCIT=(_F(CHARGE=CLIM,),
                          _F(CHARGE=CH_CABH,),
                          _F(CHARGE=CH_DOME,),
                          _F(CHARGE=CH_CABV,),),
                   COMPORTEMENT=(_F(RELATION='BETON_BURGER',
                                    RESI_INTE_RELA = 1e-12,
                                    GROUP_MA='PACE',),
                                 _F(RELATION='SANS',
                                    GROUP_MA=('CABLEH1','CABLEH2','CABLEH3','CABLEV1','CABLEV2'),),),
                   INCREMENT=_F(LIST_INST=LISTE1,
                                INST_FIN=TMPI,
                                ),
                   NEWTON=_F(MATRICE='TANGENTE',
                             REAC_ITER=0,),
                   CONVERGENCE=_F(RESI_GLOB_RELA=1e-05,
                                  ITER_GLOB_MAXI=50,),);
RES1=CALC_PRECONT(reuse =RES1,
                  MODELE=MODELE,
                  CHAM_MATER=CHMAT,
                  CARA_ELEM=CARAMECA,
                  CABLE_BP=(CABH100,CABV100,),
                  INCREMENT=_F(LIST_INST=LISTE1,
                               INST_FIN=TMPF,),
                  CONVERGENCE=_F(RESI_GLOB_RELA=1.0e-5,
                                 ITER_GLOB_MAXI=50),
                  ETAT_INIT=_F(EVOL_NOLI=RES1,),
                  NEWTON=_F(MATRICE='TANGENTE',
                            REAC_ITER=0,),
                  EXCIT=(_F(CHARGE=CLIM,),
                         _F(CHARGE=CH_DOME,),),    
                  COMPORTEMENT=(_F(RELATION='BETON_BURGER',
                                  RESI_INTE_RELA = 1e-12,
                                  GROUP_MA='PACE',),
                               _F(RELATION='ELAS',
                                  GROUP_MA=('CABLEH1','CABLEH2','CABLEH3',),),
                               _F(RELATION='ELAS',
                                  GROUP_MA=('CABLEV1','CABLEV2',),),),);


RES1=STAT_NON_LINE(reuse =RES1,
          RESULTAT=RES1,
          MODELE=MODELE,
          CHAM_MATER=CHMAT,
          CARA_ELEM=CARAMECA,
          EXCIT=(_F(CHARGE=CLIM,),
                 _F(CHARGE=CH_CABH,),
                 _F(CHARGE=CH_DOME,),
                 _F(CHARGE=CH_CABV,),),
          COMPORTEMENT=(_F(RELATION='BETON_BURGER',
                           GROUP_MA='PACE',
                           RESI_INTE_RELA=1.E-12,
                           ITER_INTE_MAXI=50),
                        _F(RELATION='ELAS',
                           GROUP_MA=('CABLEH1','CABLEH2','CABLEH3',),),
                        _F(RELATION='ELAS',
                           GROUP_MA=('CABLEV1','CABLEV2',),),),
          ETAT_INIT=_F(EVOL_NOLI=RES1,),
          INCREMENT=_F(LIST_INST=LISTE2,
                       PRECISION=1e-06,),
          NEWTON=_F(MATRICE='ELASTIQUE',
                    REAC_ITER=0,),
          CONVERGENCE=_F(RESI_GLOB_RELA=1.0e-5,
                         ITER_GLOB_MAXI=50,),);

IMPR_RESU(FORMAT='MED',
          UNITE=80,
          RESU=_F(RESULTAT=RES1))

# For debug Aster/Mordicus
IMPR_RESU(FORMAT='MED',
          UNITE=85,
          RESU=_F(RESULTAT=RES1))

FIN()

